Circuit: * C:\Users\Dave\Documents\GitHub\myVentilator\Vent_Photon\LTspice\pot_switch.asc

V2: Removing PWL point (0.6,9000)
V1: Removing PWL point (0.6,1000)
Direct Newton iteration for .op point succeeded.

Date: Wed Jan 13 04:30:20 2021
Total elapsed time: 5.439 seconds.

tnom = 27
temp = 27
method = modified trap
totiter = 180618
traniter = 180603
tranpoints = 90231
accept = 90193
rejected = 38
matrix size = 24
fillins = 0
solver = Normal
Matrix Compiler1: 1.12 KB object code size  0.4/0.2/[0.2]
Matrix Compiler2: 1.71 KB object code size  0.2/0.2/[0.2]

