Circuit: * C:\Users\Dave\Documents\GitHub\myVentilator\Vent_Photon\LTspice\pwm_driver.asc

Limiting rise time of source v5 to 1e-007
Limiting fall time of source v5 to 1e-007
V2: Removing PWL point (0.6,9000)
V1: Removing PWL point (0.6,1000)
WARNING: Less than two connections to node VDLOW.  This node is used by V1.
WARNING: Less than two connections to node VDHIGH.  This node is used by V2.
WARNING: Less than two connections to node VALOW.  This node is used by V3.
WARNING: Less than two connections to node VAHIGH.  This node is used by V4.
WARNING: Less than two connections to node N005.  This node is used by R8.
Direct Newton iteration for .op point succeeded.

Date: Sun Jan 31 16:14:56 2021
Total elapsed time: 5.237 seconds.

tnom = 27
temp = 27
method = modified trap
totiter = 781467
traniter = 781452
tranpoints = 282322
accept = 215575
rejected = 66747
matrix size = 23
fillins = 0
solver = Normal
Matrix Compiler1: 850 bytes object code size  0.3/0.2/[0.1]
Matrix Compiler2: 1.38 KB object code size  0.2/0.2/[0.2]

