Circuit: * C:\Users\Dave\Documents\GitHub\myVentilator\Vent_Photon\LTspice\pwm_driver.asc

Limiting rise time of source v5 to 5e-006
Limiting fall time of source v5 to 5e-006
V2: Removing PWL point (0.6,9000)
V1: Removing PWL point (0.6,1000)
WARNING: Less than two connections to node VDLOW.  This node is used by V1.
WARNING: Less than two connections to node VDHIGH.  This node is used by V2.
WARNING: Less than two connections to node VALOW.  This node is used by V3.
WARNING: Less than two connections to node VAHIGH.  This node is used by V4.
Direct Newton iteration for .op point succeeded.

Date: Wed Jan 13 06:33:36 2021
Total elapsed time: 0.976 seconds.

tnom = 27
temp = 27
method = modified trap
totiter = 370079
traniter = 370054
tranpoints = 150035
accept = 120036
rejected = 29999
matrix size = 19
fillins = 0
solver = Normal
Matrix Compiler1: 704 bytes object code size  0.2/0.1/[0.1]
Matrix Compiler2: off  [0.1]/0.2/0.2

