Circuit: * C:\Users\Dave\Documents\GitHub\myVentilator\Vent_Photon\LTspice\pwm_driver.asc

Limiting rise time of source v5 to 1e-007
Limiting fall time of source v5 to 1e-007
V2: Removing PWL point (0.6,9000)
V1: Removing PWL point (0.6,1000)
WARNING: Less than two connections to node VDLOW.  This node is used by V1.
WARNING: Less than two connections to node VDHIGH.  This node is used by V2.
WARNING: Less than two connections to node VALOW.  This node is used by V3.
WARNING: Less than two connections to node VAHIGH.  This node is used by V4.
Direct Newton iteration for .op point succeeded.

Date: Sat Jan 16 02:49:35 2021
Total elapsed time: 6.520 seconds.

tnom = 27
temp = 27
method = modified trap
totiter = 781799
traniter = 781784
tranpoints = 282410
accept = 215723
rejected = 66687
matrix size = 21
fillins = 0
solver = Normal
Matrix Compiler1: 804 bytes object code size  0.3/0.2/[0.1]
Matrix Compiler2: off  [0.1]/0.2/0.2

